          38
 NaXeAr   -1.8088556365425388          0.0000000000000000     
Ar     2.637908817264     0.000000000000    -0.000000000000
Ar    -2.637908817264    -0.000000000000    -0.000000000000
Ar     0.000000000000    -0.000000000000     2.637908817264
Ar     0.000000000000    -0.000000000000    -2.637908817264
Ar    -0.000000000000    -2.637908817264    -0.000000000000
Ar     0.000000000000     2.637908817264    -0.000000000000
Ar    -2.648345692039    -2.648345692039     2.648345692039
Ar    -2.648345692039    -2.648345692039    -2.648345692039
Ar     2.648345692039    -2.648345692039     2.648345692039
Ar     2.648345692039    -2.648345692039    -2.648345692039
Ar     2.648345692039     2.648345692039     2.648345692039
Ar     2.648345692039     2.648345692039    -2.648345692039
Ar    -2.648345692039     2.648345692039     2.648345692039
Ar    -2.648345692039     2.648345692039    -2.648345692039
Ar     0.000000000000    -5.322467308733     2.654766031271
Ar    -0.000000000000    -5.322467308733    -2.654766031271
Ar     2.654766031271    -5.322467308733    -0.000000000000
Ar     5.322467308733     2.654766031271    -0.000000000000
Ar     5.322467308733    -0.000000000000     2.654766031271
Ar    -5.322467308733    -0.000000000000     2.654766031271
Ar    -5.322467308733    -0.000000000000    -2.654766031271
Ar     5.322467308733    -0.000000000000    -2.654766031271
Ar     2.654766031271     5.322467308733    -0.000000000000
Ar     2.654766031271     0.000000000000     5.322467308733
Ar     2.654766031271     0.000000000000    -5.322467308733
Ar    -2.654766031271    -0.000000000000     5.322467308733
Ar    -2.654766031271    -0.000000000000    -5.322467308733
Ar    -2.654766031271    -5.322467308733    -0.000000000000
Ar    -0.000000000000    -2.654766031271     5.322467308733
Ar     0.000000000000    -2.654766031271    -5.322467308733
Ar     5.322467308733    -2.654766031271    -0.000000000000
Ar    -5.322467308733    -2.654766031271    -0.000000000000
Ar    -5.322467308733     2.654766031271    -0.000000000000
Ar    -2.654766031271     5.322467308733    -0.000000000000
Ar    -0.000000000000     2.654766031271     5.322467308733
Ar    -0.000000000000     2.654766031271    -5.322467308733
Ar    -0.000000000000     5.322467308733     2.654766031271
Ar    -0.000000000000     5.322467308733    -2.654766031271
