         279
 AgNiPd   -1092.9240277516558          400.00000000000000     
Ni   354.167975124726    81.898899679504  -187.621824224099
Ni   355.166795056732    82.109966786112  -185.484741677463
Ni   353.065579800101    83.362018320876  -186.226085022060
Ni   355.163291585095    80.293216688663  -189.070976413498
Ni   353.094665902004    81.471067798159  -189.767236111469
Ni   355.353552882048    83.838874069729  -187.233900553518
Ni   353.105479983852    81.032389891888  -185.659501694570
Ni   355.343756298703    82.751738872146  -189.518494128189
Ni   353.158794008950    79.841453560474  -187.773430339402
Ni   356.583189773843    81.798305964544  -187.577251154532
Ni   355.186905623395    79.994377618862  -186.558171569189
Ni   353.367837971608    83.756855405661  -188.723553122820
Ni   351.860557993716    81.780121977393  -187.611367766685
Ni   356.359823993657    82.497717526726  -183.329767157010
Ni   352.108446779372    84.865043028390  -184.552446887535
Ni   356.256488678708    78.690400660462  -190.513201735605
Ni   352.123488032819    81.050201476302  -191.932340929982
Ni   356.393163167743    85.969719957628  -186.851929668067
Ni   351.838947767256    79.865350501287  -183.869552880445
Ni   356.440263797092    83.782203137782  -191.416592569721
Ni   352.016373796669    77.727470537184  -188.270456608439
Ni   358.963799975932    81.665305682742  -187.559821114648
Ni   356.072396299983    78.038073554029  -185.455415224546
Ni   352.326661118687    85.662314636377  -189.724335912718
Ni   349.396456424408    81.928521178274  -187.744753768730
Ni   354.214380911793    83.651109901741  -183.939712177926
Ni   356.355823050192    84.181631498068  -185.079443305012
Ni   354.246914837946    85.303467432633  -185.851207197052
Ni   354.174388441674    81.119485160098  -183.432575661484
Ni   351.953941171236    82.342831950048  -184.146627986471
Ni   357.677093810751    82.016043207135  -185.348313785914
Ni   357.677527242986    83.861887439408  -187.277014147337
Ni   356.315480439867    80.234968689849  -184.409418819416
Ni   354.067676852156    78.997154160053  -184.721727791788
Ni   357.661694641132    79.778430149082  -186.533627116804
Ni   352.215970941514    85.356603176783  -187.156473469754
Ni   354.369720791733    85.907436335035  -188.249298087299
Ni   350.735994286650    83.411267949467  -186.080651273716
Ni   350.412985968786    80.897944695239  -185.713724611305
Ni   350.777668843654    83.748952438738  -188.521348610598
Ni   354.168782148972    79.818972037178  -191.201150286490
Ni   356.319629681108    81.254456383595  -191.070530593948
Ni   354.259276226181    82.373482237881  -191.738734643194
Ni   354.186580517743    78.158891786134  -189.410675384957
Ni   352.061791407963    79.391297036293  -190.090951487786
Ni   357.661746456725    80.212179983913  -188.966997249214
Ni   357.806148412290    82.784964389503  -189.452196407447
Ni   356.333692587500    78.398569090136  -188.041709519132
Ni   354.156818258337    77.756900543308  -186.954689428007
Ni   351.987586598927    83.331404594530  -190.695831802615
Ni   354.264785884529    84.653712415354  -190.691715370204
Ni   350.691457181532    81.397134094839  -189.767238157769
Ni   350.592267698958    79.752810347994  -188.059908539087
Ni   356.507237374117    84.938295038973  -189.107789268324
Ni   351.994591608555    78.659301666828  -185.991195479340
Ni   357.387626793540    82.707672408912  -181.297368712490
Ni   350.928967505970    86.257987444760  -183.009445843061
Ni   357.376857676527    77.123242294086  -191.995231957397
Ni   350.907119350381    80.873711485153  -193.912652368938
Ni   357.622385981120    88.006727233235  -186.465467102712
Ni   350.669597705131    78.839246472531  -181.850232775221
Ni   359.595237475602    87.961089014792  -187.730147271441
Ni   350.888693974137    75.677265288065  -188.482915562491
Ni   361.357432281160    81.780900977197  -187.470692977147
Ni   357.262820207975    76.086599353113  -184.631458980646
Ni   351.080749425283    87.603910130252  -190.600488851376
Ni   346.931338662081    81.899488001442  -187.472998272363
Ni   355.244408444121    83.907772931573  -181.552270805568
Ni   353.161110342602    85.253172132160  -181.991616686572
Ni   357.427630185835    84.634131500123  -182.794504328159
Ni   357.434504241166    86.346705585629  -184.682378029293
Ni   353.292965159606    87.006174807260  -184.311385197897
Ni   355.528585001064    87.571779721898  -185.229867195404
Ni   355.206774757088    85.818362835212  -183.542427715499
Ni   355.191779542189    81.526188695203  -181.272485808891
Ni   351.245033032903    85.473544180215  -180.570600783915
Ni   350.925886242652    83.918177579272  -182.550607235178
Ni   348.977866326743    83.029505311521  -181.826779650011
Ni   352.974804156466    82.658590437697  -181.815391059971
Ni   358.802550599012    82.352506841691  -183.168850799425
Ni   360.122615991947    82.068907101522  -185.349192657650
Ni   358.891422595220    85.927792046504  -186.760371714246
Ni   360.086390238514    83.907309222653  -186.924651332477
Ni   358.764131273543    84.186179230811  -184.917367149947
Ni   357.389508071269    80.453175860115  -182.317993272360
Ni   357.394363321056    78.239544777980  -183.468531193789
Ni   353.047099539473    77.849948780457  -182.726975553197
Ni   355.142807560692    76.982419241602  -183.489924724784
Ni   355.286489713890    79.117044820602  -182.523085583075
Ni   360.077207727566    79.794839324928  -186.547322571854
Ni   358.701535220118    77.870437994867  -185.549344614273
Ni   358.893301171593    80.079825926905  -184.497809013157
Ni   351.158329794283    86.737390464600  -185.520788503877
Ni   351.140411492066    87.227261063425  -188.033522592685
Ni   355.425035431084    88.008617874371  -187.620709191591
Ni   353.290221610827    87.840054785149  -189.271911442244
Ni   353.177741811392    87.534100175755  -186.716019985609
Ni   349.574617986593    85.052755648280  -184.682808137337
Ni   348.151854256295    83.520480244068  -186.036905971361
Ni   350.749728147518    81.413834758507  -182.194058807886
Ni   348.099097545883    80.929558421919  -185.770941007975
Ni   349.404629116868    82.486132855286  -184.228613134919
Ni   349.836750332757    85.762178911805  -189.561820156491
Ni   348.298287198139    83.822972435951  -188.646073241353
Ni   349.559608371876    85.441428832597  -187.014223263165
Ni   355.208478598494    78.291061700039  -192.710789214973
Ni   353.022661227511    79.404614856011  -193.345527618423
Ni   357.360774002923    79.637400967543  -192.596986422284
Ni   359.015055163332    83.689305578158  -191.351972463224
Ni   353.176876895446    82.086161410377  -193.861659929015
Ni   355.401033479761    83.389016945195  -193.917089048990
Ni   355.267523073306    80.794525872511  -193.364089762127
Ni   355.248200059378    76.478230678788  -190.813165368177
Ni   353.091922672658    76.045056344192  -189.761927132053
Ni   350.866459820756    78.990001551058  -192.259959516025
Ni   350.936543520973    77.299417160439  -190.464170803182
Ni   353.171229834863    77.672890476737  -191.669511770655
Ni   358.784345131103    78.729039265156  -190.625352558323
Ni   360.212733155175    80.162864730019  -189.000617660758
Ni   360.768211295128    85.392671226511  -185.202794253623
Ni   360.319419425575    82.602392823945  -189.687121238859
Ni   358.799141531472    81.039917331622  -191.166069356113
Ni   357.461122536221    76.651892753634  -189.563010238398
Ni   357.252066305196    76.410012996593  -187.181984503616
Ni   353.071785739447    75.714187560725  -187.212824169150
Ni   355.199373639258    75.867201896816  -185.782647466483
Ni   355.203513506672    76.071297892588  -188.399804387685
Ni   358.747102475253    78.126257344240  -188.032472906731
Ni   350.988206412182    83.066846575383  -192.895025835524
Ni   351.036834341313    85.271791132279  -191.715456275985
Ni   357.786389651168    85.765579102947  -190.967006427855
Ni   353.294702471566    86.910827980707  -191.651586914494
Ni   353.128008392389    84.344394802229  -192.818142296843
Ni   349.592061298767    81.228977296140  -191.933536874768
Ni   348.081686022005    81.502232513585  -189.816266125351
Ni   349.500709988498    77.561037751137  -188.448365173192
Ni   348.112786057596    79.750269254165  -188.049227407171
Ni   349.447311802952    79.348969276480  -190.203562039118
Ni   349.480575453840    83.344347213443  -190.694195568210
Ni   357.823348654298    86.798340131520  -188.772708221033
Ni   360.759327177537    80.984162212777  -183.220224174112
Ni   359.171061449861    84.628279786379  -189.168794260217
Ni   355.526407469282    86.732419786761  -190.126289910624
Ni   350.746070746891    77.796918011755  -184.085187341920
Ni   350.882893574068    76.625299083989  -186.399005993172
Ni   353.024729637127    76.634259328575  -184.862037553418
Ni   349.401547647989    78.680110367912  -186.043464188174
Pd   352.853756531125    80.101841719306  -181.552859617671
Pd   347.503135117005    86.380635289447  -188.353708815305
Pd   347.340852191198    84.073888395583  -183.546755960346
Pd   352.474794487072    80.425965693559  -195.792321839108
Pd   350.899533985454    80.196315131550  -179.625466590025
Pd   345.934115226851    84.335569102639  -187.385714866123
Pd   353.444969842004    75.214741024554  -192.291670293739
Pd   355.767472512534    75.803110859573  -193.296435444191
Pd   349.137398685231    88.035996525984  -186.604830739156
Pd   346.149238232561    83.012947865340  -189.802182911956
Pd   355.522306638646    85.650408218166  -192.677662598839
Pd   362.552393922779    83.739295679943  -188.483870428532
Pd   360.903849371599    78.581998682050  -184.438121815488
Pd   348.752590479553    77.514539124962  -191.874325920477
Pd   357.553145995341    82.286757151138  -193.000114043468
Pd   345.935289878000    79.715221386182  -186.677576752393
Pd   354.784686283392    74.161573499913  -190.267274463986
Pd   351.171803332116    82.860223085545  -180.037051132869
Pd   351.171590072475    74.750286928303  -190.928553719883
Pd   359.566164333959    84.031962045779  -181.188120393965
Pd   359.391817007723    81.167937452778  -181.000989343030
Pd   347.485956106408    86.099079780320  -185.810018397109
Pd   361.487643934427    84.840175851404  -190.664037584177
Pd   353.534275423004    77.164549058484  -194.247515527415
Pd   352.929830813660    89.280594428361  -191.275493842126
Pd   348.701732424610    75.279480530660  -187.357988812249
Pd   353.653263411320    84.220256571614  -195.534351161332
Pd   351.219624262426    87.452466468312  -193.114879405759
Pd   357.840826919717    84.947188216345  -193.652669985438
Pd   359.414033476769    86.025397439513  -182.931025358259
Pd   357.462397043946    88.765000541385  -184.215589057569
Pd   360.856677896217    77.801086898706  -189.319243067911
Pd   347.298422359541    82.653425985008  -192.037604220722
Pd   353.235018221324    74.046151523112  -185.315582864659
Pd   354.728700101557    73.870557201605  -187.549320738230
Pd   361.081423385159    83.703600731986  -183.292765975497
Pd   357.181203676357    74.306948640350  -188.723370954025
Pd   347.247358577308    81.604847788896  -183.250319561303
Pd   349.239094736665    79.928920916526  -183.698535959326
Pd   356.043877904302    89.992140862778  -186.103564558670
Pd   359.501647520254    76.444625701283  -183.454283567690
Pd   357.274919350924    83.202475790839  -195.496254880627
Pd   348.750336496687    79.481578666885  -193.555080341235
Pd   351.312197203437    76.433372127429  -192.894214323790
Pd   361.160284529812    85.958618523395  -188.179724022590
Pd   347.338192458643    85.158780703370  -190.529948929282
Pd   353.244303547848    75.345787469029  -182.758710894572
Pd   362.237072179429    79.365754288019  -187.656440122158
Pd   362.802076419487    79.685833304029  -182.843035014790
Pd   357.302254117653    85.051959603769  -180.238467187389
Pd   354.827285795724    81.682119576202  -195.791202823599
Pd   347.232086456062    77.963382659239  -189.658528404842
Pd   355.267047066683    88.211138429652  -192.117746702395
Pd   353.827557788863    89.920691295738  -187.556782612717
Pd   353.477693516815    84.217202785578  -179.725295536322
Pd   357.650725085215    89.407008348414  -188.417487237290
Pd   348.724929078327    75.681544478354  -190.128225204123
Pd   359.452291597491    75.599155334355  -188.479846461639
Pd   352.655306646673    87.600950292661  -181.657399779226
Pd   351.002654343812    75.323176343213  -184.192574883038
Pd   353.829116791354    89.414854809244  -184.960874865615
Pd   355.776518073773    74.477648713589  -183.572949480549
Pd   362.417589384007    81.280375182581  -189.811956734824
Pd   352.528120820255    73.782603862855  -188.825460885036
Pd   353.426194062268    81.609116532510  -179.347820887170
Pd   348.624630935349    76.373579662130  -185.072726166459
Pd   359.502332480268    80.603852119224  -193.648967691112
Pd   361.022963554851    79.639714981926  -191.552493042866
Pd   360.821072131538    77.041000240163  -186.708812861297
Pd   351.202360188157    78.357153176167  -194.664048125384
Pd   361.353812369536    82.314935141428  -191.972721485061
Pd   354.961544230168    76.926037943347  -181.092655239411
Pd   347.275068509821    79.874805894025  -191.537675084109
Pd   359.443603413114    78.903000872064  -182.239180102320
Pd   346.004914136582    80.071183456894  -189.325283261835
Pd   355.436982021792    89.275121926921  -189.763728934483
Pd   362.461490513075    83.420821166401  -185.845528570966
Pd   351.002839864396    74.032698084759  -186.547034068186
Pd   359.362171508360    78.090860814684  -193.017156163559
Pd   348.875592835856    82.382663426361  -194.373925690020
Pd   351.517073587088    89.418399465118  -186.464458874486
Pd   351.492987739092    88.757559876115  -183.746956871472
Pd   353.503328985663    86.441557939112  -194.149501273140
Pd   348.868974908469    84.581658896018  -192.837434133912
Pd   359.695424215639    87.689245327256  -185.093966693135
Pd   357.177882161912    87.201575530175  -182.169663487535
Pd   357.357317886997    78.261882665205  -180.549066555092
Pd   355.070781022835    86.514915035796  -180.781857257488
Pd   355.022291375613    88.391554781769  -182.719493263146
Pd   359.697481651001    83.234156411459  -193.941935587106
Pd   359.971708236639    85.760439812610  -192.481143160964
Pd   363.202282112702    82.216771058434  -183.456323414999
Pd   351.222830371609    85.221177595700  -194.419934077724
Pd   348.535314028958    77.698592883468  -182.514887466721
Pd   357.037512121474    80.607374070069  -179.582126102722
Pd   359.289018514396    75.102555502738  -186.053572189220
Pd   355.854285871495    85.658020944209  -195.217873659944
Pd   356.829075303117    73.899787572076  -186.077958488324
Pd   357.590937208943    88.297567785156  -190.777517692676
Pd   354.687874853624    79.097454027054  -195.344126365442
Pd   356.852732620148    78.056207398478  -194.454019228649
Pd   357.206284605263    80.564939412457  -195.030475436416
Pd   354.894878836169    79.416259795113  -179.890873971438
Pd   349.556175285445    73.506906599378  -189.111591670144
Pd   347.209964553433    77.536848372527  -187.062340358520
Pd   352.970590478585    86.683543550371  -179.310119359985
Pd   357.228570252365    76.062822117707  -182.090476144478
Pd   360.019124174685    86.901817173238  -190.210219364391
Pd   353.211006669160    88.943596811901  -193.691330927492
Pd   352.597213569787    78.044678781802  -180.183385225488
Pd   348.990274592717    86.835375234247  -191.751268184955
Pd   359.568714119203    76.351554989645  -191.000351426763
Pd   347.213106361905    78.689014655557  -184.632593382259
Pd   350.919205433334    76.377424540794  -181.838618524542
Pd   357.155361933151    74.685857102024  -191.227418106048
Pd   351.511143992485    89.750755473036  -189.039844246591
Pd   358.576489542181    82.846731741177  -179.098639697492
Pd   355.760115285117    82.989665842213  -179.295906361492
Pd   349.050565086069    87.631968703872  -184.009435916855
Pd   351.317179493928    82.802697540221  -195.492746813206
Pd   363.808507046920    81.754305076794  -187.266001782400
Pd   345.808278574058    82.380860434692  -185.318547470820
Pd   348.806693972135    85.525702825893  -181.977682960404
Pd   355.206461037239    85.492833019702  -178.334822129827
Pd   348.486944960662    80.372253052488  -181.265130195017
Pd   362.521795203312    80.743073371405  -185.239334231401
Pd   349.024743346540    84.360745574123  -179.705231141865
Pd   354.144995884707    88.898306135957  -179.990158441605
Pd   361.647359639882    82.397733416304  -181.288001955780
Pd   349.082660996879    81.765451091569  -179.351608641409
Pd   345.370022361257    84.948745150544  -184.935124224002
Pd   349.246116022845    88.407833739705  -189.183831787020
